This file contains any messages produced by compilers while
running configure, to aid debugging if configure makes a mistake.

It was created by Specfem3D_Globe configure 8.1.1, which was
generated by GNU Autoconf 2.72.  Invocation command line was

  $ ./configure --with-cuda=cuda9 CUDA_LIB=/work/HPC_SYS/twnia2/pkg-rocky8/nvidia/hpc_sdk/Linux_x86_64/24.11/cuda/lib64 --enable-cuda-aware-mpi

## --------- ##
## Platform. ##
## --------- ##

hostname = un-ln01.twcc.ai
uname -m = x86_64
uname -r = 4.18.0-305.131.1.el8_4.x86_64
uname -s = Linux
uname -v = #1 SMP Fri May 17 03:52:29 EDT 2024

/usr/bin/uname -p = x86_64
/bin/uname -X     = unknown

/bin/arch              = x86_64
/usr/bin/arch -k       = unknown
/usr/convex/getsysinfo = unknown
/usr/bin/hostinfo      = unknown
/bin/machine           = unknown
/usr/bin/oslevel       = unknown
/bin/universe          = unknown

PATH: /work/HPC_SYS/devtoolset/devtoolset-10/root/usr/bin/
PATH: /work/HPC_SYS/twnia2/pkg-rocky8/nvidia/hpc_sdk/Linux_x86_64/24.11/comm_libs/12.6/hpcx/hpcx-2.20/ompi/bin/
PATH: /work/HPC_SYS/twnia2/pkg-rocky8/nvidia/hpc_sdk/Linux_x86_64/24.11/comm_libs/12.6/hpcx/hpcx-2.20/clusterkit/bin/
PATH: /work/HPC_SYS/twnia2/pkg-rocky8/nvidia/hpc_sdk/Linux_x86_64/24.11/comm_libs/12.6/hpcx/hpcx-2.20/ompi/tests/imb/
PATH: /work/HPC_SYS/twnia2/pkg-rocky8/nvidia/hpc_sdk/Linux_x86_64/24.11/comm_libs/12.6/hpcx/hpcx-2.20/sharp/bin/
PATH: /work/HPC_SYS/twnia2/pkg-rocky8/nvidia/hpc_sdk/Linux_x86_64/24.11/comm_libs/12.6/hpcx/hpcx-2.20/hcoll/bin/
PATH: /work/HPC_SYS/twnia2/pkg-rocky8/nvidia/hpc_sdk/Linux_x86_64/24.11/comm_libs/12.6/hpcx/hpcx-2.20/ucc/bin/
PATH: /work/HPC_SYS/twnia2/pkg-rocky8/nvidia/hpc_sdk/Linux_x86_64/24.11/comm_libs/12.6/hpcx/hpcx-2.20/ucx/bin/
PATH: /work/HPC_SYS/twnia2/pkg-rocky8/nvidia/hpc_sdk/Linux_x86_64/24.11/compilers/extras/qd/bin/
PATH: /work/HPC_SYS/twnia2/pkg-rocky8/nvidia/hpc_sdk/Linux_x86_64/24.11/compilers/bin/
PATH: /work/HPC_SYS/twnia2/pkg-rocky8/nvidia/hpc_sdk/Linux_x86_64/24.11/cuda/12.6/bin/
PATH: /home/u9934609/.vscode/cli/servers/Stable-c306e94f98122556ca081f527b466015e1bc37b0/server/bin/remote-cli/
PATH: /home/u9934609/.local/bin/
PATH: /home/u9934609/bin/
PATH: /usr/local/bin/
PATH: /usr/bin/
PATH: /usr/local/sbin/
PATH: /usr/sbin/
PATH: /home/u9934609/.vscode-server/data/User/globalStorage/github.copilot-chat/debugCommand/


## ----------- ##
## Core tests. ##
## ----------- ##

configure:3007: looking for aux files: config.guess config.sub
configure:3020:  trying ./
configure:3049:   ./config.guess found
configure:3049:   ./config.sub found
configure:3314: checking build system type
configure:3330: result: x86_64-pc-linux-gnu
configure:3350: checking host system type
configure:3365: result: x86_64-pc-linux-gnu
configure:4271: checking for Fortran compiler version
configure:4280: /work/HPC_SYS/twnia2/pkg-rocky8/nvidia/hpc_sdk/Linux_x86_64/24.11/compilers/bin/nvfortran --version >&5

nvfortran 24.11-0 64-bit target on x86-64 Linux -tp skylake-avx512 
NVIDIA Compilers and Tools
Copyright (c) 2024, NVIDIA CORPORATION & AFFILIATES.  All rights reserved.
configure:4291: $? = 0
configure:4280: /work/HPC_SYS/twnia2/pkg-rocky8/nvidia/hpc_sdk/Linux_x86_64/24.11/compilers/bin/nvfortran -v >&5
Export NVCOMPILER=/work/HPC_SYS/twnia2/pkg-rocky8/nvidia/hpc_sdk/Linux_x86_64/24.11
Export PGI=/work/HPC_SYS/twnia2/pkg-rocky8/nvidia/hpc_sdk
nvfortran-Warning-No files to process

configure:4291: $? = 0
configure:4280: /work/HPC_SYS/twnia2/pkg-rocky8/nvidia/hpc_sdk/Linux_x86_64/24.11/compilers/bin/nvfortran -V >&5

nvfortran 24.11-0 64-bit target on x86-64 Linux -tp skylake-avx512 
NVIDIA Compilers and Tools
Copyright (c) 2024, NVIDIA CORPORATION & AFFILIATES.  All rights reserved.
configure:4291: $? = 0
configure:4280: /work/HPC_SYS/twnia2/pkg-rocky8/nvidia/hpc_sdk/Linux_x86_64/24.11/compilers/bin/nvfortran -qversion >&5
nvfortran-Error-Unknown switch: -qversion
configure:4291: $? = 1
configure:4306: checking whether the Fortran compiler works
configure:4328: /work/HPC_SYS/twnia2/pkg-rocky8/nvidia/hpc_sdk/Linux_x86_64/24.11/compilers/bin/nvfortran    conftest.f  >&5
configure:4332: $? = 0
configure:4383: result: yes
configure:4387: checking for Fortran compiler default output file name
configure:4389: result: a.out
configure:4395: checking for suffix of executables
configure:4402: /work/HPC_SYS/twnia2/pkg-rocky8/nvidia/hpc_sdk/Linux_x86_64/24.11/compilers/bin/nvfortran -o conftest    conftest.f  >&5
configure:4406: $? = 0
configure:4430: result: 
configure:4446: checking whether we are cross compiling
configure:4454: /work/HPC_SYS/twnia2/pkg-rocky8/nvidia/hpc_sdk/Linux_x86_64/24.11/compilers/bin/nvfortran -o conftest    conftest.f  >&5
configure:4458: $? = 0
configure:4465: ./conftest
configure:4469: $? = 0
configure:4484: result: no
configure:4490: checking for suffix of object files
configure:4507: /work/HPC_SYS/twnia2/pkg-rocky8/nvidia/hpc_sdk/Linux_x86_64/24.11/compilers/bin/nvfortran -c   conftest.f >&5
configure:4511: $? = 0
configure:4535: result: o
configure:4543: checking whether the compiler supports GNU Fortran
configure:4557: /work/HPC_SYS/twnia2/pkg-rocky8/nvidia/hpc_sdk/Linux_x86_64/24.11/compilers/bin/nvfortran -c   conftest.F >&5
NVFORTRAN-S-0034-Syntax error at or near end of line (conftest.F: 3)
  0 inform,   0 warnings,   1 severes, 0 fatal for main
configure:4557: $? = 2
configure: failed program was:
|       program main
| #ifndef __GNUC__
|        choke me
| #endif
| 
|       end
configure:4569: result: no
configure:4577: checking whether /work/HPC_SYS/twnia2/pkg-rocky8/nvidia/hpc_sdk/Linux_x86_64/24.11/compilers/bin/nvfortran accepts -g
configure:4589: /work/HPC_SYS/twnia2/pkg-rocky8/nvidia/hpc_sdk/Linux_x86_64/24.11/compilers/bin/nvfortran -c -g  conftest.f >&5
configure:4589: $? = 0
configure:4600: result: yes
configure:4639: running /bin/sh ./flags.guess
configure:4650: checking how to get verbose linking output from /work/HPC_SYS/twnia2/pkg-rocky8/nvidia/hpc_sdk/Linux_x86_64/24.11/compilers/bin/nvfortran
configure:4661: /work/HPC_SYS/twnia2/pkg-rocky8/nvidia/hpc_sdk/Linux_x86_64/24.11/compilers/bin/nvfortran -c -g  conftest.f >&5
configure:4661: $? = 0
configure:4680: /work/HPC_SYS/twnia2/pkg-rocky8/nvidia/hpc_sdk/Linux_x86_64/24.11/compilers/bin/nvfortran -o conftest -g -v conftest.f
Export NVCOMPILER=/work/HPC_SYS/twnia2/pkg-rocky8/nvidia/hpc_sdk/Linux_x86_64/24.11
Export PGI=/work/HPC_SYS/twnia2/pkg-rocky8/nvidia/hpc_sdk

/work/HPC_SYS/twnia2/pkg-rocky8/nvidia/hpc_sdk/Linux_x86_64/24.11/compilers/bin/tools/fort1 conftest.f -debug -x 120 0x8000 -opt 0 -nostatic -x 19 0x400000 -quad -x 59 4 -x 15 2 -x 49 0x400004 -x 51 0x20 -x 57 0x4c -x 58 0x10000 -x 124 0x1000 -tp skylake-avx512 -x 57 0xfb0000 -x 58 0x78031040 -x 47 0x08 -x 48 4608 -x 49 0x100 -stdinc /work/HPC_SYS/twnia2/pkg-rocky8/nvidia/hpc_sdk/Linux_x86_64/24.11/compilers/include:/work/HPC_SYS/twnia2/pkg-rocky8/nvidia/hpc_sdk/Linux_x86_64/24.11/compilers/include-stdexec:/usr/lib/gcc/x86_64-redhat-linux/8/include:/usr/local/include:/usr/include -cmdline '+nvfortran conftest.f -o conftest -g -v' -def __unix -def __unix__ -def unix -def linux -def __linux -def __linux__ -def __ELF__ -def __NO_MATH_INLINES -def __LP64__ -def __x86_64 -def __x86_64__ -def __LONG_MAX__=9223372036854775807L -def '__SIZE_TYPE__=unsigned long int' -def '__PTRDIFF_TYPE__=long int' -def __amd64 -def __amd64__ -def __k8 -def __k8__ -def __MMX__ -def __SSE_MATH__ -def __MMX_WITH_SSE__ -def __SSE__ -def __SSE2__ -def __SSE2_MATH__ -def __SSE3__ -def __SSSE3__ -def __SSE4_1__ -def __SSE4_2__ -def __ABM__ -def __ADX__ -def __AES__ -def __AVX__ -def __AVX2__ -def __AVX512BW__ -def __AVX512CD__ -def __AVX512DQ__ -def __AVX512F__ -def __AVX512VL__ -def __BMI__ -def __BMI2__ -def __CLFLUSHOPT__ -def __CLWB__ -def __CX16__ -def __F16C__ -def __FMA__ -def __FSGSBASE__ -def __FXSR__ -def __HLE__ -def __LZCNT__ -def __MOVBE__ -def __PCLMUL__ -def __PKU__ -def __POPCNT__ -def __PRFCHW__ -def __RDRND__ -def __RDSEED__ -def __RTM__ -def __LAHF_SAHF__ -def __XSAVE__ -def __XSAVEC__ -def __XSAVEOPT__ -def __XSAVES__ -def __PGLLVM__ -def __NVCOMPILER_LLVM__ -def __extension__= -def __NVCOMPILER_GPU_SEPARATE_MEM -nofreeform -vect 48 -x 54 1 -mach 0 -nomach 0 -x 68 0x1 -x 70 0x40000000 -x 70 0x40000000 -x 68 0x1 -x 124 1 -x 195 0x8000 -y 163 0xc0000000 -x 163 0x800000 -x 189 0x10 -x 49 0x1000 -stbfile /tmp/nvfortranQHWgo_LXSzdUM.stb -modexport /tmp/nvfortran6HWgoUv_paZbi.cmod -modindex /tmp/nvfortrankHWgoEdX0v4Pw.cmdx -cci /tmp/nvfortranAHWgooePcf_bi.cci -output /tmp/nvfortrankHWgoEaHjWZzN.ilm
  0 inform,   0 warnings,   0 severes, 0 fatal for main
NVFORTRAN/x86-64 Linux 24.11-0: compilation successful

/work/HPC_SYS/twnia2/pkg-rocky8/nvidia/hpc_sdk/Linux_x86_64/24.11/compilers/bin/tools/fort2 /tmp/nvfortrankHWgoEaHjWZzN.ilm -fn conftest.f -debug -x 120 0x8000 -opt 0 -x 51 0x20 -x 119 0xa10000 -x 122 0x40 -x 123 0x1000 -x 127 4 -x 127 17 -x 19 0x400000 -x 28 0x40000 -x 120 0x10000000 -x 70 0x8000 -x 122 1 -x 125 0x20000 -quad -x 59 4 -tp skylake-avx512 -x 124 0x1400 -y 15 2 -x 57 0x3b0000 -x 58 0x48000000 -x 49 0x100 -astype 0 -x 121 1 -x 183 4 -x 121 0x800 -mach 0 -nomach 0 -x 68 0x1 -x 8 0x40000000 -x 70 0x40000000 -x 56 0x10 -x 54 0x10 -x 249 170 -x 68 0x20 -x 70 0x40000000 -x 8 0x40000000 -x 164 0x800000 -x 71 0x2000 -x 71 0x4000 -x 34 0x40000000 -x 120 0x1000000 -x 73 0x04 -x 231 0x800 -x 68 0x1 -x 39 4 -x 56 0x10 -x 26 0x10 -x 26 1 -x 56 0x4000 -x 124 1 -x 197 0 -x 175 0 -x 203 0 -x 204 0 -x 227 0xFFFF -y 163 0xc0000000 -x 163 0x800000 -x 189 0x10 -y 189 0x4000000 -x 60 512 -cci /tmp/nvfortranAHWgooePcf_bi.cci -cmdline '+nvfortran conftest.f -o conftest -g -v' -stbfile /tmp/nvfortranQHWgo_LXSzdUM.stb -asm /tmp/nvfortranQHWgo_yfCyhQG.ll
  0 inform,   0 warnings,   0 severes, 0 fatal for main
NVFORTRAN/x86-64 Linux 24.11-0: compilation successful

/work/HPC_SYS/twnia2/pkg-rocky8/nvidia/hpc_sdk/Linux_x86_64/24.11/compilers/share/llvm/bin/llc /tmp/nvfortranQHWgo_yfCyhQG.ll -march=x86-64 -mcpu=native -mattr=+mmx -mattr=+sse -mattr=+sse2 -mattr=+sse3 -mattr=+ssse3 -mattr=+sse4.1 -mattr=+sse4.2 -mattr=+avx -mattr=+avx2 -mattr=+avx512f -mattr=+avx512cd -mattr=+avx512vl -mattr=+avx512bw -mattr=+avx512dq -mattr=+f16c -mattr=+fma -mattr=+xsave -mattr=+xsaveopt -mattr=+xsavec -mattr=+xsaves -mattr=+popcnt -mattr=+aes -mattr=+pclmul -mattr=+clflushopt -mattr=+fsgsbase -mattr=+rdrnd -mattr=+bmi -mattr=+bmi2 -mattr=+lzcnt -mattr=+fxsr -mattr=+rtm -mattr=+pku -mattr=+adx -mattr=+clwb -mattr=+cx16 -mattr=+movbe -mattr=+prfchw -mattr=+rdseed -mattr=+sahf -O0 -x86-cmov-converter=0 -dwarf-directory=false -non-global-value-max-name-size=4294967295 --align-all-functions=6 -nvhpc-memzero -filetype=obj --frame-pointer=none -o /tmp/nvfortran6HWgoUGWzqJRB.o

/work/HPC_SYS/twnia2/pkg-rocky8/nvidia/hpc_sdk/Linux_x86_64/24.11/compilers/bin/tools/append -noerror /tmp/nvfortran6HWgoUGWzqJRB.o -name .IPDINFO /tmp/nvfortran6HWgoUv_paZbi.cmod -name .IPEINFO /tmp/nvfortrankHWgoEdX0v4Pw.cmdx

/work/HPC_SYS/devtoolset/devtoolset-10/root/usr/bin/ld /usr/lib64/crt1.o /usr/lib64/crti.o /usr/lib/gcc/x86_64-redhat-linux/8//crtbegin.o /work/HPC_SYS/twnia2/pkg-rocky8/nvidia/hpc_sdk/Linux_x86_64/24.11/compilers/lib/f90main.o --eh-frame-hdr -m elf_x86_64 -dynamic-linker /lib64/ld-linux-x86-64.so.2 -T /work/HPC_SYS/twnia2/pkg-rocky8/nvidia/hpc_sdk/Linux_x86_64/24.11/compilers/lib/nvhpc.ld -L/work/HPC_SYS/devtoolset/devtoolset-10/root/usr/lib64 -L/work/HPC_SYS/devtoolset/devtoolset-10/root/usr/lib -L/work/HPC_SYS/twnia2/pkg-rocky8/nvidia/hpc_sdk/Linux_x86_64/24.11/comm_libs/12.6/hpcx/hpcx-2.20/ompi/lib -L/work/HPC_SYS/twnia2/pkg-rocky8/nvidia/hpc_sdk/Linux_x86_64/24.11/comm_libs/12.6/hpcx/hpcx-2.20/nccl_rdma_sharp_plugin/lib -L/work/HPC_SYS/twnia2/pkg-rocky8/nvidia/hpc_sdk/Linux_x86_64/24.11/comm_libs/12.6/hpcx/hpcx-2.20/sharp/lib -L/work/HPC_SYS/twnia2/pkg-rocky8/nvidia/hpc_sdk/Linux_x86_64/24.11/comm_libs/12.6/hpcx/hpcx-2.20/hcoll/lib -L/work/HPC_SYS/twnia2/pkg-rocky8/nvidia/hpc_sdk/Linux_x86_64/24.11/comm_libs/12.6/hpcx/hpcx-2.20/ucc/lib -L/work/HPC_SYS/twnia2/pkg-rocky8/nvidia/hpc_sdk/Linux_x86_64/24.11/comm_libs/12.6/hpcx/hpcx-2.20/ucx/lib -L/work/HPC_SYS/twnia2/pkg-rocky8/nvidia/hpc_sdk/Linux_x86_64/24.11/compilers/lib -L/usr/lib64 -L/usr/lib/gcc/x86_64-redhat-linux/8/ /tmp/nvfortran6HWgoUGWzqJRB.o -rpath /work/HPC_SYS/twnia2/pkg-rocky8/nvidia/hpc_sdk/Linux_x86_64/24.11/compilers/lib -o conftest -L/usr/lib/gcc/x86_64-redhat-linux/8//../../../../lib64 -lnvf -lnvomp -ldl --as-needed -lnvhpcatm -latomic --no-as-needed -lpthread -lnvcpumath -lnsnvc -lnvc -lrt -lpthread -lgcc -lc -lgcc_s -lm /usr/lib/gcc/x86_64-redhat-linux/8//crtend.o /usr/lib64/crtn.o
Unlinking /tmp/nvfortrankHWgoEaHjWZzN.ilm
Unlinking /tmp/nvfortranAHWgooePcf_bi.cci
Unlinking /tmp/nvfortranQHWgo_LXSzdUM.stb
Unlinking /tmp/nvfortran6HWgoUv_paZbi.cmod
Unlinking /tmp/nvfortrankHWgoEdX0v4Pw.cmdx
Unlinking /tmp/nvfortranAHWgooF5NbqwO.s
Unlinking /tmp/nvfortranQHWgo_yfCyhQG.ll
Unlinking /tmp/nvfortran6HWgoUGWzqJRB.o
Unlinking /tmp/nvfortrankHWgoEM0SMXNU.llvm
configure:4765: result: -v
configure:4767: checking for Fortran libraries of /work/HPC_SYS/twnia2/pkg-rocky8/nvidia/hpc_sdk/Linux_x86_64/24.11/compilers/bin/nvfortran
configure:4791: /work/HPC_SYS/twnia2/pkg-rocky8/nvidia/hpc_sdk/Linux_x86_64/24.11/compilers/bin/nvfortran -o conftest -g -v conftest.f
Export NVCOMPILER=/work/HPC_SYS/twnia2/pkg-rocky8/nvidia/hpc_sdk/Linux_x86_64/24.11
Export PGI=/work/HPC_SYS/twnia2/pkg-rocky8/nvidia/hpc_sdk

/work/HPC_SYS/twnia2/pkg-rocky8/nvidia/hpc_sdk/Linux_x86_64/24.11/compilers/bin/tools/fort1 conftest.f -debug -x 120 0x8000 -opt 0 -nostatic -x 19 0x400000 -quad -x 59 4 -x 15 2 -x 49 0x400004 -x 51 0x20 -x 57 0x4c -x 58 0x10000 -x 124 0x1000 -tp skylake-avx512 -x 57 0xfb0000 -x 58 0x78031040 -x 47 0x08 -x 48 4608 -x 49 0x100 -stdinc /work/HPC_SYS/twnia2/pkg-rocky8/nvidia/hpc_sdk/Linux_x86_64/24.11/compilers/include:/work/HPC_SYS/twnia2/pkg-rocky8/nvidia/hpc_sdk/Linux_x86_64/24.11/compilers/include-stdexec:/usr/lib/gcc/x86_64-redhat-linux/8/include:/usr/local/include:/usr/include -cmdline '+nvfortran conftest.f -o conftest -g -v' -def __unix -def __unix__ -def unix -def linux -def __linux -def __linux__ -def __ELF__ -def __NO_MATH_INLINES -def __LP64__ -def __x86_64 -def __x86_64__ -def __LONG_MAX__=9223372036854775807L -def '__SIZE_TYPE__=unsigned long int' -def '__PTRDIFF_TYPE__=long int' -def __amd64 -def __amd64__ -def __k8 -def __k8__ -def __MMX__ -def __SSE_MATH__ -def __MMX_WITH_SSE__ -def __SSE__ -def __SSE2__ -def __SSE2_MATH__ -def __SSE3__ -def __SSSE3__ -def __SSE4_1__ -def __SSE4_2__ -def __ABM__ -def __ADX__ -def __AES__ -def __AVX__ -def __AVX2__ -def __AVX512BW__ -def __AVX512CD__ -def __AVX512DQ__ -def __AVX512F__ -def __AVX512VL__ -def __BMI__ -def __BMI2__ -def __CLFLUSHOPT__ -def __CLWB__ -def __CX16__ -def __F16C__ -def __FMA__ -def __FSGSBASE__ -def __FXSR__ -def __HLE__ -def __LZCNT__ -def __MOVBE__ -def __PCLMUL__ -def __PKU__ -def __POPCNT__ -def __PRFCHW__ -def __RDRND__ -def __RDSEED__ -def __RTM__ -def __LAHF_SAHF__ -def __XSAVE__ -def __XSAVEC__ -def __XSAVEOPT__ -def __XSAVES__ -def __PGLLVM__ -def __NVCOMPILER_LLVM__ -def __extension__= -def __NVCOMPILER_GPU_SEPARATE_MEM -nofreeform -vect 48 -x 54 1 -mach 0 -nomach 0 -x 68 0x1 -x 70 0x40000000 -x 70 0x40000000 -x 68 0x1 -x 124 1 -x 195 0x8000 -y 163 0xc0000000 -x 163 0x800000 -x 189 0x10 -x 49 0x1000 -stbfile /tmp/nvfortranDkXgoxXBsMghp.stb -modexport /tmp/nvfortranfkXgop8zONM5_.cmod -modindex /tmp/nvfortranTkXgohEjcAiiQ.cmdx -cci /tmp/nvfortran1kXgoFfJhYcDS.cci -output /tmp/nvfortrannkXgoNaRpFt16.ilm
  0 inform,   0 warnings,   0 severes, 0 fatal for main
NVFORTRAN/x86-64 Linux 24.11-0: compilation successful

/work/HPC_SYS/twnia2/pkg-rocky8/nvidia/hpc_sdk/Linux_x86_64/24.11/compilers/bin/tools/fort2 /tmp/nvfortrannkXgoNaRpFt16.ilm -fn conftest.f -debug -x 120 0x8000 -opt 0 -x 51 0x20 -x 119 0xa10000 -x 122 0x40 -x 123 0x1000 -x 127 4 -x 127 17 -x 19 0x400000 -x 28 0x40000 -x 120 0x10000000 -x 70 0x8000 -x 122 1 -x 125 0x20000 -quad -x 59 4 -tp skylake-avx512 -x 124 0x1400 -y 15 2 -x 57 0x3b0000 -x 58 0x48000000 -x 49 0x100 -astype 0 -x 121 1 -x 183 4 -x 121 0x800 -mach 0 -nomach 0 -x 68 0x1 -x 8 0x40000000 -x 70 0x40000000 -x 56 0x10 -x 54 0x10 -x 249 170 -x 68 0x20 -x 70 0x40000000 -x 8 0x40000000 -x 164 0x800000 -x 71 0x2000 -x 71 0x4000 -x 34 0x40000000 -x 120 0x1000000 -x 73 0x04 -x 231 0x800 -x 68 0x1 -x 39 4 -x 56 0x10 -x 26 0x10 -x 26 1 -x 56 0x4000 -x 124 1 -x 197 0 -x 175 0 -x 203 0 -x 204 0 -x 227 0xFFFF -y 163 0xc0000000 -x 163 0x800000 -x 189 0x10 -y 189 0x4000000 -x 60 512 -cci /tmp/nvfortran1kXgoFfJhYcDS.cci -cmdline '+nvfortran conftest.f -o conftest -g -v' -stbfile /tmp/nvfortranDkXgoxXBsMghp.stb -asm /tmp/nvfortran9kXgo3g-Qh5QS.ll
  0 inform,   0 warnings,   0 severes, 0 fatal for main
NVFORTRAN/x86-64 Linux 24.11-0: compilation successful

/work/HPC_SYS/twnia2/pkg-rocky8/nvidia/hpc_sdk/Linux_x86_64/24.11/compilers/share/llvm/bin/llc /tmp/nvfortran9kXgo3g-Qh5QS.ll -march=x86-64 -mcpu=native -mattr=+mmx -mattr=+sse -mattr=+sse2 -mattr=+sse3 -mattr=+ssse3 -mattr=+sse4.1 -mattr=+sse4.2 -mattr=+avx -mattr=+avx2 -mattr=+avx512f -mattr=+avx512cd -mattr=+avx512vl -mattr=+avx512bw -mattr=+avx512dq -mattr=+f16c -mattr=+fma -mattr=+xsave -mattr=+xsaveopt -mattr=+xsavec -mattr=+xsaves -mattr=+popcnt -mattr=+aes -mattr=+pclmul -mattr=+clflushopt -mattr=+fsgsbase -mattr=+rdrnd -mattr=+bmi -mattr=+bmi2 -mattr=+lzcnt -mattr=+fxsr -mattr=+rtm -mattr=+pku -mattr=+adx -mattr=+clwb -mattr=+cx16 -mattr=+movbe -mattr=+prfchw -mattr=+rdseed -mattr=+sahf -O0 -x86-cmov-converter=0 -dwarf-directory=false -non-global-value-max-name-size=4294967295 --align-all-functions=6 -nvhpc-memzero -filetype=obj --frame-pointer=none -o /tmp/nvfortranLkXgoV9xvxyWz.o

/work/HPC_SYS/twnia2/pkg-rocky8/nvidia/hpc_sdk/Linux_x86_64/24.11/compilers/bin/tools/append -noerror /tmp/nvfortranLkXgoV9xvxyWz.o -name .IPDINFO /tmp/nvfortranfkXgop8zONM5_.cmod -name .IPEINFO /tmp/nvfortranTkXgohEjcAiiQ.cmdx

/work/HPC_SYS/devtoolset/devtoolset-10/root/usr/bin/ld /usr/lib64/crt1.o /usr/lib64/crti.o /usr/lib/gcc/x86_64-redhat-linux/8//crtbegin.o /work/HPC_SYS/twnia2/pkg-rocky8/nvidia/hpc_sdk/Linux_x86_64/24.11/compilers/lib/f90main.o --eh-frame-hdr -m elf_x86_64 -dynamic-linker /lib64/ld-linux-x86-64.so.2 -T /work/HPC_SYS/twnia2/pkg-rocky8/nvidia/hpc_sdk/Linux_x86_64/24.11/compilers/lib/nvhpc.ld -L/work/HPC_SYS/devtoolset/devtoolset-10/root/usr/lib64 -L/work/HPC_SYS/devtoolset/devtoolset-10/root/usr/lib -L/work/HPC_SYS/twnia2/pkg-rocky8/nvidia/hpc_sdk/Linux_x86_64/24.11/comm_libs/12.6/hpcx/hpcx-2.20/ompi/lib -L/work/HPC_SYS/twnia2/pkg-rocky8/nvidia/hpc_sdk/Linux_x86_64/24.11/comm_libs/12.6/hpcx/hpcx-2.20/nccl_rdma_sharp_plugin/lib -L/work/HPC_SYS/twnia2/pkg-rocky8/nvidia/hpc_sdk/Linux_x86_64/24.11/comm_libs/12.6/hpcx/hpcx-2.20/sharp/lib -L/work/HPC_SYS/twnia2/pkg-rocky8/nvidia/hpc_sdk/Linux_x86_64/24.11/comm_libs/12.6/hpcx/hpcx-2.20/hcoll/lib -L/work/HPC_SYS/twnia2/pkg-rocky8/nvidia/hpc_sdk/Linux_x86_64/24.11/comm_libs/12.6/hpcx/hpcx-2.20/ucc/lib -L/work/HPC_SYS/twnia2/pkg-rocky8/nvidia/hpc_sdk/Linux_x86_64/24.11/comm_libs/12.6/hpcx/hpcx-2.20/ucx/lib -L/work/HPC_SYS/twnia2/pkg-rocky8/nvidia/hpc_sdk/Linux_x86_64/24.11/compilers/lib -L/usr/lib64 -L/usr/lib/gcc/x86_64-redhat-linux/8/ /tmp/nvfortranLkXgoV9xvxyWz.o -rpath /work/HPC_SYS/twnia2/pkg-rocky8/nvidia/hpc_sdk/Linux_x86_64/24.11/compilers/lib -o conftest -L/usr/lib/gcc/x86_64-redhat-linux/8//../../../../lib64 -lnvf -lnvomp -ldl --as-needed -lnvhpcatm -latomic --no-as-needed -lpthread -lnvcpumath -lnsnvc -lnvc -lrt -lpthread -lgcc -lc -lgcc_s -lm /usr/lib/gcc/x86_64-redhat-linux/8//crtend.o /usr/lib64/crtn.o
Unlinking /tmp/nvfortrannkXgoNaRpFt16.ilm
Unlinking /tmp/nvfortran1kXgoFfJhYcDS.cci
Unlinking /tmp/nvfortranDkXgoxXBsMghp.stb
Unlinking /tmp/nvfortranfkXgop8zONM5_.cmod
Unlinking /tmp/nvfortranTkXgohEjcAiiQ.cmdx
Unlinking /tmp/nvfortranvkXgo-o1Dwbil.s
Unlinking /tmp/nvfortran9kXgo3g-Qh5QS.ll
Unlinking /tmp/nvfortranLkXgoV9xvxyWz.o
Unlinking /tmp/nvfortrannkXgoNR3MjGqS.llvm
configure:5013: result:  -L/work/HPC_SYS/devtoolset/devtoolset-10/root/usr/lib64 -L/work/HPC_SYS/devtoolset/devtoolset-10/root/usr/lib -L/work/HPC_SYS/twnia2/pkg-rocky8/nvidia/hpc_sdk/Linux_x86_64/24.11/comm_libs/12.6/hpcx/hpcx-2.20/ompi/lib -L/work/HPC_SYS/twnia2/pkg-rocky8/nvidia/hpc_sdk/Linux_x86_64/24.11/comm_libs/12.6/hpcx/hpcx-2.20/nccl_rdma_sharp_plugin/lib -L/work/HPC_SYS/twnia2/pkg-rocky8/nvidia/hpc_sdk/Linux_x86_64/24.11/comm_libs/12.6/hpcx/hpcx-2.20/sharp/lib -L/work/HPC_SYS/twnia2/pkg-rocky8/nvidia/hpc_sdk/Linux_x86_64/24.11/comm_libs/12.6/hpcx/hpcx-2.20/hcoll/lib -L/work/HPC_SYS/twnia2/pkg-rocky8/nvidia/hpc_sdk/Linux_x86_64/24.11/comm_libs/12.6/hpcx/hpcx-2.20/ucc/lib -L/work/HPC_SYS/twnia2/pkg-rocky8/nvidia/hpc_sdk/Linux_x86_64/24.11/comm_libs/12.6/hpcx/hpcx-2.20/ucx/lib -L/work/HPC_SYS/twnia2/pkg-rocky8/nvidia/hpc_sdk/Linux_x86_64/24.11/compilers/lib -L/usr/lib64 -L/usr/lib/gcc/x86_64-redhat-linux/8/ -L/usr/lib/gcc/x86_64-redhat-linux/8//../../../../lib64 -lnvf -lnvomp -ldl -lnvhpcatm -latomic -lpthread -lnvcpumath -lnsnvc -lnvc -lrt -lm
configure:5087: checking for gcc
configure:5120: result: /work/HPC_SYS/twnia2/pkg-rocky8/nvidia/hpc_sdk/Linux_x86_64/24.11/compilers/bin/nvc
configure:5479: checking for C compiler version
configure:5488: /work/HPC_SYS/twnia2/pkg-rocky8/nvidia/hpc_sdk/Linux_x86_64/24.11/compilers/bin/nvc --version >&5

nvc 24.11-0 64-bit target on x86-64 Linux -tp skylake-avx512 
NVIDIA Compilers and Tools
Copyright (c) 2024, NVIDIA CORPORATION & AFFILIATES.  All rights reserved.
configure:5499: $? = 0
configure:5488: /work/HPC_SYS/twnia2/pkg-rocky8/nvidia/hpc_sdk/Linux_x86_64/24.11/compilers/bin/nvc -v >&5
Export NVCOMPILER=/work/HPC_SYS/twnia2/pkg-rocky8/nvidia/hpc_sdk/Linux_x86_64/24.11
Export PGI=/work/HPC_SYS/twnia2/pkg-rocky8/nvidia/hpc_sdk
nvc-Warning-No files to process

configure:5499: $? = 0
configure:5488: /work/HPC_SYS/twnia2/pkg-rocky8/nvidia/hpc_sdk/Linux_x86_64/24.11/compilers/bin/nvc -V >&5

nvc 24.11-0 64-bit target on x86-64 Linux -tp skylake-avx512 
NVIDIA Compilers and Tools
Copyright (c) 2024, NVIDIA CORPORATION & AFFILIATES.  All rights reserved.
configure:5499: $? = 0
configure:5488: /work/HPC_SYS/twnia2/pkg-rocky8/nvidia/hpc_sdk/Linux_x86_64/24.11/compilers/bin/nvc -qversion >&5
nvc-Error-Unknown switch: -qversion
configure:5499: $? = 1
configure:5488: /work/HPC_SYS/twnia2/pkg-rocky8/nvidia/hpc_sdk/Linux_x86_64/24.11/compilers/bin/nvc -version >&5
nvc-Error-Unknown switch: -version
configure:5499: $? = 1
configure:5503: checking whether the compiler supports GNU C
configure:5531: /work/HPC_SYS/twnia2/pkg-rocky8/nvidia/hpc_sdk/Linux_x86_64/24.11/compilers/bin/nvc -c   conftest.c >&5
configure:5531: $? = 0
configure:5543: result: yes
configure:5554: checking whether /work/HPC_SYS/twnia2/pkg-rocky8/nvidia/hpc_sdk/Linux_x86_64/24.11/compilers/bin/nvc accepts -g
configure:5583: /work/HPC_SYS/twnia2/pkg-rocky8/nvidia/hpc_sdk/Linux_x86_64/24.11/compilers/bin/nvc -c -g  conftest.c >&5
configure:5583: $? = 0
configure:5646: result: yes
configure:5666: checking for /work/HPC_SYS/twnia2/pkg-rocky8/nvidia/hpc_sdk/Linux_x86_64/24.11/compilers/bin/nvc option to enable C11 features
configure:5681: /work/HPC_SYS/twnia2/pkg-rocky8/nvidia/hpc_sdk/Linux_x86_64/24.11/compilers/bin/nvc  -c -g -O2  conftest.c >&5
configure:5681: $? = 0
configure:5700: result: none needed
configure:5824: checking for dummy main to link with Fortran libraries
configure:5859: /work/HPC_SYS/twnia2/pkg-rocky8/nvidia/hpc_sdk/Linux_x86_64/24.11/compilers/bin/nvc -o conftest -g -O2   conftest.c   -L/work/HPC_SYS/devtoolset/devtoolset-10/root/usr/lib64 -L/work/HPC_SYS/devtoolset/devtoolset-10/root/usr/lib -L/work/HPC_SYS/twnia2/pkg-rocky8/nvidia/hpc_sdk/Linux_x86_64/24.11/comm_libs/12.6/hpcx/hpcx-2.20/ompi/lib -L/work/HPC_SYS/twnia2/pkg-rocky8/nvidia/hpc_sdk/Linux_x86_64/24.11/comm_libs/12.6/hpcx/hpcx-2.20/nccl_rdma_sharp_plugin/lib -L/work/HPC_SYS/twnia2/pkg-rocky8/nvidia/hpc_sdk/Linux_x86_64/24.11/comm_libs/12.6/hpcx/hpcx-2.20/sharp/lib -L/work/HPC_SYS/twnia2/pkg-rocky8/nvidia/hpc_sdk/Linux_x86_64/24.11/comm_libs/12.6/hpcx/hpcx-2.20/hcoll/lib -L/work/HPC_SYS/twnia2/pkg-rocky8/nvidia/hpc_sdk/Linux_x86_64/24.11/comm_libs/12.6/hpcx/hpcx-2.20/ucc/lib -L/work/HPC_SYS/twnia2/pkg-rocky8/nvidia/hpc_sdk/Linux_x86_64/24.11/comm_libs/12.6/hpcx/hpcx-2.20/ucx/lib -L/work/HPC_SYS/twnia2/pkg-rocky8/nvidia/hpc_sdk/Linux_x86_64/24.11/compilers/lib -L/usr/lib64 -L/usr/lib/gcc/x86_64-redhat-linux/8/ -L/usr/lib/gcc/x86_64-redhat-linux/8//../../../../lib64 -lnvf -lnvomp -ldl -lnvhpcatm -latomic -lpthread -lnvcpumath -lnsnvc -lnvc -lrt -lm >&5
configure:5859: $? = 0
configure:5908: result: none
configure:5941: checking for Fortran name-mangling scheme
configure:5955: /work/HPC_SYS/twnia2/pkg-rocky8/nvidia/hpc_sdk/Linux_x86_64/24.11/compilers/bin/nvfortran -c -g  conftest.f >&5
configure:5955: $? = 0
configure:6000: /work/HPC_SYS/twnia2/pkg-rocky8/nvidia/hpc_sdk/Linux_x86_64/24.11/compilers/bin/nvc -o conftest -g -O2   conftest.c cfortran_test.o   -L/work/HPC_SYS/devtoolset/devtoolset-10/root/usr/lib64 -L/work/HPC_SYS/devtoolset/devtoolset-10/root/usr/lib -L/work/HPC_SYS/twnia2/pkg-rocky8/nvidia/hpc_sdk/Linux_x86_64/24.11/comm_libs/12.6/hpcx/hpcx-2.20/ompi/lib -L/work/HPC_SYS/twnia2/pkg-rocky8/nvidia/hpc_sdk/Linux_x86_64/24.11/comm_libs/12.6/hpcx/hpcx-2.20/nccl_rdma_sharp_plugin/lib -L/work/HPC_SYS/twnia2/pkg-rocky8/nvidia/hpc_sdk/Linux_x86_64/24.11/comm_libs/12.6/hpcx/hpcx-2.20/sharp/lib -L/work/HPC_SYS/twnia2/pkg-rocky8/nvidia/hpc_sdk/Linux_x86_64/24.11/comm_libs/12.6/hpcx/hpcx-2.20/hcoll/lib -L/work/HPC_SYS/twnia2/pkg-rocky8/nvidia/hpc_sdk/Linux_x86_64/24.11/comm_libs/12.6/hpcx/hpcx-2.20/ucc/lib -L/work/HPC_SYS/twnia2/pkg-rocky8/nvidia/hpc_sdk/Linux_x86_64/24.11/comm_libs/12.6/hpcx/hpcx-2.20/ucx/lib -L/work/HPC_SYS/twnia2/pkg-rocky8/nvidia/hpc_sdk/Linux_x86_64/24.11/compilers/lib -L/usr/lib64 -L/usr/lib/gcc/x86_64-redhat-linux/8/ -L/usr/lib/gcc/x86_64-redhat-linux/8//../../../../lib64 -lnvf -lnvomp -ldl -lnvhpcatm -latomic -lpthread -lnvcpumath -lnsnvc -lnvc -lrt -lm >&5
conftest.c:
"conftest.c", line 33: warning: statement is unreachable [code_is_unreachable]
    return 0;
    ^

Remark: individual warnings can be suppressed with "--diag_suppress <warning-name>"

/work/HPC_SYS/devtoolset/devtoolset-10/root/usr/bin/ld: /tmp/nvcm96goKIZV5lY8.o: in function `main':
/home/u9934609/fuckypou/specfem3d_globe/conftest.c:31: undefined reference to `foobar'
configure:6000: $? = 2
configure: failed program was:
| /* confdefs.h */
| #define PACKAGE_NAME "Specfem3D_Globe"
| #define PACKAGE_TARNAME "Specfem3DGlobe"
| #define PACKAGE_VERSION "8.1.1"
| #define PACKAGE_STRING "Specfem3D_Globe 8.1.1"
| #define PACKAGE_BUGREPORT "see the wiki"
| #define PACKAGE_URL ""
| /* end confdefs.h.  */
| 
| /* Override any GCC internal prototype to avoid an error.
|    Use char because int might match the return type of a GCC
|    builtin and then its argument prototype would still apply.
|    The 'extern "C"' is for builds by C++ compilers;
|    although this is not generally supported in C code supporting it here
|    has little cost and some practical benefit (sr 110532).  */
| #ifdef __cplusplus
| extern "C"
| #endif
| char foobar (void);
| #ifdef FC_DUMMY_MAIN
| #ifndef FC_DUMMY_MAIN_EQ_F77
| #  ifdef __cplusplus
|      extern "C"
| #  endif
|    int FC_DUMMY_MAIN() { return 1; }
| #endif
| #endif
| int
| main (void)
| {
| return foobar ();
|   ;
|   return 0;
| }
configure:6000: /work/HPC_SYS/twnia2/pkg-rocky8/nvidia/hpc_sdk/Linux_x86_64/24.11/compilers/bin/nvc -o conftest -g -O2   conftest.c cfortran_test.o   -L/work/HPC_SYS/devtoolset/devtoolset-10/root/usr/lib64 -L/work/HPC_SYS/devtoolset/devtoolset-10/root/usr/lib -L/work/HPC_SYS/twnia2/pkg-rocky8/nvidia/hpc_sdk/Linux_x86_64/24.11/comm_libs/12.6/hpcx/hpcx-2.20/ompi/lib -L/work/HPC_SYS/twnia2/pkg-rocky8/nvidia/hpc_sdk/Linux_x86_64/24.11/comm_libs/12.6/hpcx/hpcx-2.20/nccl_rdma_sharp_plugin/lib -L/work/HPC_SYS/twnia2/pkg-rocky8/nvidia/hpc_sdk/Linux_x86_64/24.11/comm_libs/12.6/hpcx/hpcx-2.20/sharp/lib -L/work/HPC_SYS/twnia2/pkg-rocky8/nvidia/hpc_sdk/Linux_x86_64/24.11/comm_libs/12.6/hpcx/hpcx-2.20/hcoll/lib -L/work/HPC_SYS/twnia2/pkg-rocky8/nvidia/hpc_sdk/Linux_x86_64/24.11/comm_libs/12.6/hpcx/hpcx-2.20/ucc/lib -L/work/HPC_SYS/twnia2/pkg-rocky8/nvidia/hpc_sdk/Linux_x86_64/24.11/comm_libs/12.6/hpcx/hpcx-2.20/ucx/lib -L/work/HPC_SYS/twnia2/pkg-rocky8/nvidia/hpc_sdk/Linux_x86_64/24.11/compilers/lib -L/usr/lib64 -L/usr/lib/gcc/x86_64-redhat-linux/8/ -L/usr/lib/gcc/x86_64-redhat-linux/8//../../../../lib64 -lnvf -lnvomp -ldl -lnvhpcatm -latomic -lpthread -lnvcpumath -lnsnvc -lnvc -lrt -lm >&5
conftest.c:
"conftest.c", line 33: warning: statement is unreachable [code_is_unreachable]
    return 0;
    ^

Remark: individual warnings can be suppressed with "--diag_suppress <warning-name>"

configure:6000: $? = 0
configure:6062: /work/HPC_SYS/twnia2/pkg-rocky8/nvidia/hpc_sdk/Linux_x86_64/24.11/compilers/bin/nvc -o conftest -g -O2   conftest.c cfortran_test.o   -L/work/HPC_SYS/devtoolset/devtoolset-10/root/usr/lib64 -L/work/HPC_SYS/devtoolset/devtoolset-10/root/usr/lib -L/work/HPC_SYS/twnia2/pkg-rocky8/nvidia/hpc_sdk/Linux_x86_64/24.11/comm_libs/12.6/hpcx/hpcx-2.20/ompi/lib -L/work/HPC_SYS/twnia2/pkg-rocky8/nvidia/hpc_sdk/Linux_x86_64/24.11/comm_libs/12.6/hpcx/hpcx-2.20/nccl_rdma_sharp_plugin/lib -L/work/HPC_SYS/twnia2/pkg-rocky8/nvidia/hpc_sdk/Linux_x86_64/24.11/comm_libs/12.6/hpcx/hpcx-2.20/sharp/lib -L/work/HPC_SYS/twnia2/pkg-rocky8/nvidia/hpc_sdk/Linux_x86_64/24.11/comm_libs/12.6/hpcx/hpcx-2.20/hcoll/lib -L/work/HPC_SYS/twnia2/pkg-rocky8/nvidia/hpc_sdk/Linux_x86_64/24.11/comm_libs/12.6/hpcx/hpcx-2.20/ucc/lib -L/work/HPC_SYS/twnia2/pkg-rocky8/nvidia/hpc_sdk/Linux_x86_64/24.11/comm_libs/12.6/hpcx/hpcx-2.20/ucx/lib -L/work/HPC_SYS/twnia2/pkg-rocky8/nvidia/hpc_sdk/Linux_x86_64/24.11/compilers/lib -L/usr/lib64 -L/usr/lib/gcc/x86_64-redhat-linux/8/ -L/usr/lib/gcc/x86_64-redhat-linux/8//../../../../lib64 -lnvf -lnvomp -ldl -lnvhpcatm -latomic -lpthread -lnvcpumath -lnsnvc -lnvc -lrt -lm >&5
conftest.c:
"conftest.c", line 33: warning: statement is unreachable [code_is_unreachable]
    return 0;
    ^

Remark: individual warnings can be suppressed with "--diag_suppress <warning-name>"

configure:6062: $? = 0
configure:6107: result: lower case, underscore, no extra underscore
configure:6182: checking for Fortran flag to compile .f90 files
configure:6203: /work/HPC_SYS/twnia2/pkg-rocky8/nvidia/hpc_sdk/Linux_x86_64/24.11/compilers/bin/nvfortran -c -g  conftest.f90 >&5
configure:6203: $? = 0
configure:6214: result: none
configure:6239: checking for Fortran flag needed to accept free-form source
configure:6259: /work/HPC_SYS/twnia2/pkg-rocky8/nvidia/hpc_sdk/Linux_x86_64/24.11/compilers/bin/nvfortran -c -g  conftest.f90 >&5
configure:6259: $? = 0
configure:6270: result: none
configure:6295: checking for Fortran flag to compile preprocessed .F files
configure:6321: /work/HPC_SYS/twnia2/pkg-rocky8/nvidia/hpc_sdk/Linux_x86_64/24.11/compilers/bin/nvfortran -c -g  conftest.F >&5
configure:6321: $? = 0
configure:6332: /work/HPC_SYS/twnia2/pkg-rocky8/nvidia/hpc_sdk/Linux_x86_64/24.11/compilers/bin/nvfortran -c -g  conftest.F >&5
NVFORTRAN-F-0906-Can't find include file ac_nonexistent.h (conftest.F: 4)
NVFORTRAN/x86-64 Linux 24.11-0: compilation aborted
configure:6332: $? = 2
configure: failed program was:
|       program main
| 
| #if 1
| #include <ac_nonexistent.h>
|       choke me
| #endif
|       end
configure:6348: result: none
configure:6369: checking how to define symbols for preprocessed Fortran
configure:6392: /work/HPC_SYS/twnia2/pkg-rocky8/nvidia/hpc_sdk/Linux_x86_64/24.11/compilers/bin/nvfortran -c -g -DFOOBAR -DZORK=42  conftest.F >&5
configure:6392: $? = 0
configure:6403: result: -D
configure:6423: checking for Fortran flag to compile preprocessed .F90 files
configure:6449: /work/HPC_SYS/twnia2/pkg-rocky8/nvidia/hpc_sdk/Linux_x86_64/24.11/compilers/bin/nvfortran -c -g  conftest.F90 >&5
configure:6449: $? = 0
configure:6460: /work/HPC_SYS/twnia2/pkg-rocky8/nvidia/hpc_sdk/Linux_x86_64/24.11/compilers/bin/nvfortran -c -g  conftest.F90 >&5
NVFORTRAN-F-0906-Can't find include file ac_nonexistent.h (conftest.F90: 4)
NVFORTRAN/x86-64 Linux 24.11-0: compilation aborted
configure:6460: $? = 2
configure: failed program was:
|       program main
| 
| #if 1
| #include <ac_nonexistent.h>
|       choke me
| #endif
|       end
configure:6476: result: none
configure:6551: checking for gcc
configure:6584: result: /work/HPC_SYS/twnia2/pkg-rocky8/nvidia/hpc_sdk/Linux_x86_64/24.11/compilers/bin/nvc
configure:6943: checking for C compiler version
configure:6952: /work/HPC_SYS/twnia2/pkg-rocky8/nvidia/hpc_sdk/Linux_x86_64/24.11/compilers/bin/nvc --version >&5

nvc 24.11-0 64-bit target on x86-64 Linux -tp skylake-avx512 
NVIDIA Compilers and Tools
Copyright (c) 2024, NVIDIA CORPORATION & AFFILIATES.  All rights reserved.
configure:6963: $? = 0
configure:6952: /work/HPC_SYS/twnia2/pkg-rocky8/nvidia/hpc_sdk/Linux_x86_64/24.11/compilers/bin/nvc -v >&5
Export NVCOMPILER=/work/HPC_SYS/twnia2/pkg-rocky8/nvidia/hpc_sdk/Linux_x86_64/24.11
Export PGI=/work/HPC_SYS/twnia2/pkg-rocky8/nvidia/hpc_sdk
nvc-Warning-No files to process

configure:6963: $? = 0
configure:6952: /work/HPC_SYS/twnia2/pkg-rocky8/nvidia/hpc_sdk/Linux_x86_64/24.11/compilers/bin/nvc -V >&5

nvc 24.11-0 64-bit target on x86-64 Linux -tp skylake-avx512 
NVIDIA Compilers and Tools
Copyright (c) 2024, NVIDIA CORPORATION & AFFILIATES.  All rights reserved.
configure:6963: $? = 0
configure:6952: /work/HPC_SYS/twnia2/pkg-rocky8/nvidia/hpc_sdk/Linux_x86_64/24.11/compilers/bin/nvc -qversion >&5
nvc-Error-Unknown switch: -qversion
configure:6963: $? = 1
configure:6952: /work/HPC_SYS/twnia2/pkg-rocky8/nvidia/hpc_sdk/Linux_x86_64/24.11/compilers/bin/nvc -version >&5
nvc-Error-Unknown switch: -version
configure:6963: $? = 1
configure:6967: checking whether the compiler supports GNU C
configure:7007: result: yes
configure:7018: checking whether /work/HPC_SYS/twnia2/pkg-rocky8/nvidia/hpc_sdk/Linux_x86_64/24.11/compilers/bin/nvc accepts -g
configure:7110: result: yes
configure:7130: checking for /work/HPC_SYS/twnia2/pkg-rocky8/nvidia/hpc_sdk/Linux_x86_64/24.11/compilers/bin/nvc option to enable C11 features
configure:7164: result: none needed
configure:7324: checking Fortran 90 module extension
configure:7347: /work/HPC_SYS/twnia2/pkg-rocky8/nvidia/hpc_sdk/Linux_x86_64/24.11/compilers/bin/nvfortran -c -g  conftest.F90 >&5
configure:7347: $? = 0
configure:7365: result: mod
configure:7374: checking Fortran 90 module inclusion flag
configure:7397: /work/HPC_SYS/twnia2/pkg-rocky8/nvidia/hpc_sdk/Linux_x86_64/24.11/compilers/bin/nvfortran -c -g  conftest.F90 >&5
configure:7397: $? = 0
configure:7412: /work/HPC_SYS/twnia2/pkg-rocky8/nvidia/hpc_sdk/Linux_x86_64/24.11/compilers/bin/nvfortran -c -g -Mconftest.dir -Mconftest.dir  conftest.F90 >&5
nvfortran-Error-Unknown switch: -Mconftest.dir
nvfortran-Error-Unknown switch: -Mconftest.dir
configure:7412: $? = 1
configure: failed program was:
| 
|       program main
|       use conftest_module
|       call conftest_routine
|       end program
configure:7412: /work/HPC_SYS/twnia2/pkg-rocky8/nvidia/hpc_sdk/Linux_x86_64/24.11/compilers/bin/nvfortran -c -g -Iconftest.dir -Iconftest.dir  conftest.F90 >&5
configure:7412: $? = 0
configure:7434: result: -I
configure:7449: checking Fortran 90 module output flag
configure:7478: /work/HPC_SYS/twnia2/pkg-rocky8/nvidia/hpc_sdk/Linux_x86_64/24.11/compilers/bin/nvfortran -c -g -Jsub  conftest.F90 >&5
nvfortran-Error-Unknown switch: -Jsub
configure:7478: $? = 1
configure: failed program was:
| 
|       module conftest_module
|       contains
|       subroutine conftest_routine
|       write(*,'(a)') 'gotcha!'
|       end subroutine
|       end module
configure:7478: /work/HPC_SYS/twnia2/pkg-rocky8/nvidia/hpc_sdk/Linux_x86_64/24.11/compilers/bin/nvfortran -c -g -J sub  conftest.F90 >&5
nvfortran-Error-Unknown switch: -J
configure:7478: $? = 1
configure: failed program was:
| 
|       module conftest_module
|       contains
|       subroutine conftest_routine
|       write(*,'(a)') 'gotcha!'
|       end subroutine
|       end module
configure:7478: /work/HPC_SYS/twnia2/pkg-rocky8/nvidia/hpc_sdk/Linux_x86_64/24.11/compilers/bin/nvfortran -c -g -fmod=sub  conftest.F90 >&5
nvfortran-Error-Unknown switch: -fmod=sub
configure:7478: $? = 1
configure: failed program was:
| 
|       module conftest_module
|       contains
|       subroutine conftest_routine
|       write(*,'(a)') 'gotcha!'
|       end subroutine
|       end module
configure:7478: /work/HPC_SYS/twnia2/pkg-rocky8/nvidia/hpc_sdk/Linux_x86_64/24.11/compilers/bin/nvfortran -c -g -moddir=sub  conftest.F90 >&5
nvfortran-Error-Unknown switch: -moddir=sub
configure:7478: $? = 1
configure: failed program was:
| 
|       module conftest_module
|       contains
|       subroutine conftest_routine
|       write(*,'(a)') 'gotcha!'
|       end subroutine
|       end module
configure:7478: /work/HPC_SYS/twnia2/pkg-rocky8/nvidia/hpc_sdk/Linux_x86_64/24.11/compilers/bin/nvfortran -c -g +moddir=sub  conftest.F90 >&5
nvfortran-Error-Unknown switch: +moddir=sub
configure:7478: $? = 1
configure: failed program was:
| 
|       module conftest_module
|       contains
|       subroutine conftest_routine
|       write(*,'(a)') 'gotcha!'
|       end subroutine
|       end module
configure:7478: /work/HPC_SYS/twnia2/pkg-rocky8/nvidia/hpc_sdk/Linux_x86_64/24.11/compilers/bin/nvfortran -c -g -qmoddir=sub  conftest.F90 >&5
nvfortran-Error-Unknown switch: -qmoddir=sub
configure:7478: $? = 1
configure: failed program was:
| 
|       module conftest_module
|       contains
|       subroutine conftest_routine
|       write(*,'(a)') 'gotcha!'
|       end subroutine
|       end module
configure:7478: /work/HPC_SYS/twnia2/pkg-rocky8/nvidia/hpc_sdk/Linux_x86_64/24.11/compilers/bin/nvfortran -c -g -mdir sub  conftest.F90 >&5
nvfortran-Error-Unknown switch: -mdir
configure:7478: $? = 1
configure: failed program was:
| 
|       module conftest_module
|       contains
|       subroutine conftest_routine
|       write(*,'(a)') 'gotcha!'
|       end subroutine
|       end module
configure:7478: /work/HPC_SYS/twnia2/pkg-rocky8/nvidia/hpc_sdk/Linux_x86_64/24.11/compilers/bin/nvfortran -c -g -mod sub  conftest.F90 >&5
nvfortran-Error-Unknown switch: -mod
configure:7478: $? = 1
configure: failed program was:
| 
|       module conftest_module
|       contains
|       subroutine conftest_routine
|       write(*,'(a)') 'gotcha!'
|       end subroutine
|       end module
configure:7478: /work/HPC_SYS/twnia2/pkg-rocky8/nvidia/hpc_sdk/Linux_x86_64/24.11/compilers/bin/nvfortran -c -g -module sub  conftest.F90 >&5
configure:7478: $? = 0
configure:7488: /work/HPC_SYS/twnia2/pkg-rocky8/nvidia/hpc_sdk/Linux_x86_64/24.11/compilers/bin/nvfortran -c -g -module sub  conftest.F90 >&5
configure:7488: $? = 0
configure:7512: result: -module 
configure:7547: checking for stdio.h
configure:7547: /work/HPC_SYS/twnia2/pkg-rocky8/nvidia/hpc_sdk/Linux_x86_64/24.11/compilers/bin/nvc -c -g -O2  conftest.c >&5
configure:7547: $? = 0
configure:7547: result: yes
configure:7547: checking for stdlib.h
configure:7547: /work/HPC_SYS/twnia2/pkg-rocky8/nvidia/hpc_sdk/Linux_x86_64/24.11/compilers/bin/nvc -c -g -O2  conftest.c >&5
configure:7547: $? = 0
configure:7547: result: yes
configure:7547: checking for string.h
configure:7547: /work/HPC_SYS/twnia2/pkg-rocky8/nvidia/hpc_sdk/Linux_x86_64/24.11/compilers/bin/nvc -c -g -O2  conftest.c >&5
configure:7547: $? = 0
configure:7547: result: yes
configure:7547: checking for inttypes.h
configure:7547: /work/HPC_SYS/twnia2/pkg-rocky8/nvidia/hpc_sdk/Linux_x86_64/24.11/compilers/bin/nvc -c -g -O2  conftest.c >&5
configure:7547: $? = 0
configure:7547: result: yes
configure:7547: checking for stdint.h
configure:7547: /work/HPC_SYS/twnia2/pkg-rocky8/nvidia/hpc_sdk/Linux_x86_64/24.11/compilers/bin/nvc -c -g -O2  conftest.c >&5
configure:7547: $? = 0
configure:7547: result: yes
configure:7547: checking for strings.h
configure:7547: /work/HPC_SYS/twnia2/pkg-rocky8/nvidia/hpc_sdk/Linux_x86_64/24.11/compilers/bin/nvc -c -g -O2  conftest.c >&5
configure:7547: $? = 0
configure:7547: result: yes
configure:7547: checking for sys/stat.h
configure:7547: /work/HPC_SYS/twnia2/pkg-rocky8/nvidia/hpc_sdk/Linux_x86_64/24.11/compilers/bin/nvc -c -g -O2  conftest.c >&5
configure:7547: $? = 0
configure:7547: result: yes
configure:7547: checking for sys/types.h
configure:7547: /work/HPC_SYS/twnia2/pkg-rocky8/nvidia/hpc_sdk/Linux_x86_64/24.11/compilers/bin/nvc -c -g -O2  conftest.c >&5
configure:7547: $? = 0
configure:7547: result: yes
configure:7547: checking for unistd.h
configure:7547: /work/HPC_SYS/twnia2/pkg-rocky8/nvidia/hpc_sdk/Linux_x86_64/24.11/compilers/bin/nvc -c -g -O2  conftest.c >&5
configure:7547: $? = 0
configure:7547: result: yes
configure:7572: checking for emmintrin.h
configure:7572: /work/HPC_SYS/twnia2/pkg-rocky8/nvidia/hpc_sdk/Linux_x86_64/24.11/compilers/bin/nvc -c -g -O2  conftest.c >&5
configure:7572: $? = 0
configure:7572: result: yes
configure:7580: checking for xmmintrin.h
configure:7580: /work/HPC_SYS/twnia2/pkg-rocky8/nvidia/hpc_sdk/Linux_x86_64/24.11/compilers/bin/nvc -c -g -O2  conftest.c >&5
configure:7580: $? = 0
configure:7580: result: yes
configure:7589: checking for err.h
configure:7589: /work/HPC_SYS/twnia2/pkg-rocky8/nvidia/hpc_sdk/Linux_x86_64/24.11/compilers/bin/nvc -c -g -O2  conftest.c >&5
configure:7589: $? = 0
configure:7589: result: yes
configure:7962: checking how to run the C preprocessor
configure:8033: result: cpp
configure:8047: cpp  conftest.c
configure:8047: $? = 0
configure:8063: cpp  conftest.c
conftest.c:24:10: fatal error: ac_nonexistent.h: No such file or directory
   24 | #include <ac_nonexistent.h>
      |          ^~~~~~~~~~~~~~~~~~
compilation terminated.
configure:8063: $? = 1
configure: failed program was:
| /* confdefs.h */
| #define PACKAGE_NAME "Specfem3D_Globe"
| #define PACKAGE_TARNAME "Specfem3DGlobe"
| #define PACKAGE_VERSION "8.1.1"
| #define PACKAGE_STRING "Specfem3D_Globe 8.1.1"
| #define PACKAGE_BUGREPORT "see the wiki"
| #define PACKAGE_URL ""
| #define FC_FUNC(name,NAME) name ## _
| #define FC_FUNC_(name,NAME) name ## _
| #define HAVE_STDIO_H 1
| #define HAVE_STDLIB_H 1
| #define HAVE_STRING_H 1
| #define HAVE_INTTYPES_H 1
| #define HAVE_STDINT_H 1
| #define HAVE_STRINGS_H 1
| #define HAVE_SYS_STAT_H 1
| #define HAVE_SYS_TYPES_H 1
| #define HAVE_UNISTD_H 1
| #define STDC_HEADERS 1
| #define HAVE_EMMINTRIN 1
| #define HAVE_XMMINTRIN 1
| #define HAVE_ERR 1
| /* end confdefs.h.  */
| #include <ac_nonexistent.h>
configure:8122: checking for nvcc
configure:8145: found /work/HPC_SYS/twnia2/pkg-rocky8/nvidia/hpc_sdk/Linux_x86_64/24.11/compilers/bin/nvcc
configure:8158: result: /work/HPC_SYS/twnia2/pkg-rocky8/nvidia/hpc_sdk/Linux_x86_64/24.11/compilers/bin/nvcc
configure:8191: checking for cuda_runtime.h
configure:8217: nvcc -c  conftest.c >&5
configure:8217: $? = 0
configure:8220: result: yes
configure:8242: checking nvcc compilation with cudaMalloc in -lcudart
configure:8268: nvcc -c  conftest.c >&5
configure:8268: $? = 0
configure:8271: result: yes
configure:8285: checking nvcc linking with cudaMalloc in -lcudart
configure:8310: nvcc -o conftest  -L/work/HPC_SYS/twnia2/pkg-rocky8/nvidia/hpc_sdk/Linux_x86_64/24.11/cuda/lib64  conftest.c -lcudart  >&5
configure:8310: $? = 0
configure:8312: result: yes
configure:8325: checking linking with cudaMalloc in -lcudart
configure:8354: nvcc -c  conftest.c >&5; /work/HPC_SYS/twnia2/pkg-rocky8/nvidia/hpc_sdk/Linux_x86_64/24.11/compilers/bin/nvc -o conftest -L/work/HPC_SYS/twnia2/pkg-rocky8/nvidia/hpc_sdk/Linux_x86_64/24.11/cuda/lib64  conftest.o -lcudart  >&5
configure:8354: $? = 0
configure:8356: result: yes
configure:8983: enabling CUDA-aware MPI support
configure:9269: checking for C++ compiler version
configure:9278: /work/HPC_SYS/twnia2/pkg-rocky8/nvidia/hpc_sdk/Linux_x86_64/24.11/compilers/bin/nvc++ --version >&5

nvc++ 24.11-0 64-bit target on x86-64 Linux -tp skylake-avx512 
NVIDIA Compilers and Tools
Copyright (c) 2024, NVIDIA CORPORATION & AFFILIATES.  All rights reserved.
configure:9289: $? = 0
configure:9278: /work/HPC_SYS/twnia2/pkg-rocky8/nvidia/hpc_sdk/Linux_x86_64/24.11/compilers/bin/nvc++ -v >&5
Export NVCOMPILER=/work/HPC_SYS/twnia2/pkg-rocky8/nvidia/hpc_sdk/Linux_x86_64/24.11
Export PGI=/work/HPC_SYS/twnia2/pkg-rocky8/nvidia/hpc_sdk
nvc++-Warning-No files to process

configure:9289: $? = 0
configure:9278: /work/HPC_SYS/twnia2/pkg-rocky8/nvidia/hpc_sdk/Linux_x86_64/24.11/compilers/bin/nvc++ -V >&5

nvc++ 24.11-0 64-bit target on x86-64 Linux -tp skylake-avx512 
NVIDIA Compilers and Tools
Copyright (c) 2024, NVIDIA CORPORATION & AFFILIATES.  All rights reserved.
configure:9289: $? = 0
configure:9278: /work/HPC_SYS/twnia2/pkg-rocky8/nvidia/hpc_sdk/Linux_x86_64/24.11/compilers/bin/nvc++ -qversion >&5
nvc++-Error-Unknown switch: -qversion
configure:9289: $? = 1
configure:9293: checking whether the compiler supports GNU C++
configure:9321: /work/HPC_SYS/twnia2/pkg-rocky8/nvidia/hpc_sdk/Linux_x86_64/24.11/compilers/bin/nvc++ -c   conftest.cpp >&5
configure:9321: $? = 0
configure:9333: result: yes
configure:9344: checking whether /work/HPC_SYS/twnia2/pkg-rocky8/nvidia/hpc_sdk/Linux_x86_64/24.11/compilers/bin/nvc++ accepts -g
configure:9373: /work/HPC_SYS/twnia2/pkg-rocky8/nvidia/hpc_sdk/Linux_x86_64/24.11/compilers/bin/nvc++ -c -g  conftest.cpp >&5
configure:9373: $? = 0
configure:9436: result: yes
configure:9456: checking for /work/HPC_SYS/twnia2/pkg-rocky8/nvidia/hpc_sdk/Linux_x86_64/24.11/compilers/bin/nvc++ option to enable C++11 features
configure:9471: /work/HPC_SYS/twnia2/pkg-rocky8/nvidia/hpc_sdk/Linux_x86_64/24.11/compilers/bin/nvc++  -c -g -O2  conftest.cpp >&5
"conftest.cpp", line 147: warning: variable "a1" was declared but never referenced [declared_but_not_referenced]
    auto a1 = 6538;
         ^

Remark: individual warnings can be suppressed with "--diag_suppress <warning-name>"

"conftest.cpp", line 148: warning: variable "a2" was set but never used [set_but_not_used]
    auto a2 = 48573953.4;
         ^

"conftest.cpp", line 154: warning: variable "a4" was declared but never referenced [declared_but_not_referenced]
    decltype(a2) a4 = 34895.034;
                 ^

"conftest.cpp", line 158: warning: variable "sa" was declared but never referenced [declared_but_not_referenced]
    short sa[cxx11test::get_val()] = { 0 };
          ^

"conftest.cpp", line 162: warning: variable "il" was declared but never referenced [declared_but_not_referenced]
    cxx11test::testinit il = { 4323, 435234.23544 };
                        ^

"conftest.cpp", line 199: warning: variable "c" was declared but never referenced [declared_but_not_referenced]
    char *c = nullptr;
          ^

"conftest.cpp", line 207: warning: variable "utf8" was declared but never referenced [declared_but_not_referenced]
    char const *utf8 = u8"UTF-8 string \u2500";
                ^

"conftest.cpp", line 208: warning: variable "utf16" was declared but never referenced [declared_but_not_referenced]
    char16_t const *utf16 = u"UTF-8 string \u2500";
                    ^

"conftest.cpp", line 209: warning: variable "utf32" was declared but never referenced [declared_but_not_referenced]
    char32_t const *utf32 = U"UTF-32 string \u2500";
                    ^

configure:9471: $? = 0
configure:9490: result: none needed
configure:9565: checking how to run the C++ preprocessor
configure:9587: /work/HPC_SYS/twnia2/pkg-rocky8/nvidia/hpc_sdk/Linux_x86_64/24.11/compilers/bin/nvc++ -E  conftest.cpp
configure:9587: $? = 0
configure:9603: /work/HPC_SYS/twnia2/pkg-rocky8/nvidia/hpc_sdk/Linux_x86_64/24.11/compilers/bin/nvc++ -E  conftest.cpp
"conftest.cpp", line 24: error: cannot open source file "ac_nonexistent.h"
  #include <ac_nonexistent.h>
                             ^

1 error detected in the compilation of "conftest.cpp".
configure:9603: $? = 2
configure: failed program was:
| /* confdefs.h */
| #define PACKAGE_NAME "Specfem3D_Globe"
| #define PACKAGE_TARNAME "Specfem3DGlobe"
| #define PACKAGE_VERSION "8.1.1"
| #define PACKAGE_STRING "Specfem3D_Globe 8.1.1"
| #define PACKAGE_BUGREPORT "see the wiki"
| #define PACKAGE_URL ""
| #define FC_FUNC(name,NAME) name ## _
| #define FC_FUNC_(name,NAME) name ## _
| #define HAVE_STDIO_H 1
| #define HAVE_STDLIB_H 1
| #define HAVE_STRING_H 1
| #define HAVE_INTTYPES_H 1
| #define HAVE_STDINT_H 1
| #define HAVE_STRINGS_H 1
| #define HAVE_SYS_STAT_H 1
| #define HAVE_SYS_TYPES_H 1
| #define HAVE_UNISTD_H 1
| #define STDC_HEADERS 1
| #define HAVE_EMMINTRIN 1
| #define HAVE_XMMINTRIN 1
| #define HAVE_ERR 1
| /* end confdefs.h.  */
| #include <ac_nonexistent.h>
configure:9632: result: /work/HPC_SYS/twnia2/pkg-rocky8/nvidia/hpc_sdk/Linux_x86_64/24.11/compilers/bin/nvc++ -E
configure:9646: /work/HPC_SYS/twnia2/pkg-rocky8/nvidia/hpc_sdk/Linux_x86_64/24.11/compilers/bin/nvc++ -E  conftest.cpp
configure:9646: $? = 0
configure:9662: /work/HPC_SYS/twnia2/pkg-rocky8/nvidia/hpc_sdk/Linux_x86_64/24.11/compilers/bin/nvc++ -E  conftest.cpp
"conftest.cpp", line 24: error: cannot open source file "ac_nonexistent.h"
  #include <ac_nonexistent.h>
                             ^

1 error detected in the compilation of "conftest.cpp".
configure:9662: $? = 2
configure: failed program was:
| /* confdefs.h */
| #define PACKAGE_NAME "Specfem3D_Globe"
| #define PACKAGE_TARNAME "Specfem3DGlobe"
| #define PACKAGE_VERSION "8.1.1"
| #define PACKAGE_STRING "Specfem3D_Globe 8.1.1"
| #define PACKAGE_BUGREPORT "see the wiki"
| #define PACKAGE_URL ""
| #define FC_FUNC(name,NAME) name ## _
| #define FC_FUNC_(name,NAME) name ## _
| #define HAVE_STDIO_H 1
| #define HAVE_STDLIB_H 1
| #define HAVE_STRING_H 1
| #define HAVE_INTTYPES_H 1
| #define HAVE_STDINT_H 1
| #define HAVE_STRINGS_H 1
| #define HAVE_SYS_STAT_H 1
| #define HAVE_SYS_TYPES_H 1
| #define HAVE_UNISTD_H 1
| #define STDC_HEADERS 1
| #define HAVE_EMMINTRIN 1
| #define HAVE_XMMINTRIN 1
| #define HAVE_ERR 1
| /* end confdefs.h.  */
| #include <ac_nonexistent.h>
configure:9723: checking for mpi.h
configure:9723: /work/HPC_SYS/twnia2/pkg-rocky8/nvidia/hpc_sdk/Linux_x86_64/24.11/compilers/bin/nvc++ -c -g -O2  -I/work/HPC_SYS/twnia2/pkg-rocky8/nvidia/hpc_sdk/Linux_x86_64/24.11/comm_libs/12.6/hpcx/hpcx-2.20/ompi/include  conftest.cpp >&5
configure:9723: $? = 0
configure:9723: result: yes
configure:12019: checking for .git/config
configure:12034: result: yes
configure:12082: building from git repository
configure:12429: creating ./config.status

## ---------------------- ##
## Running config.status. ##
## ---------------------- ##

This file was extended by Specfem3D_Globe config.status 8.1.1, which was
generated by GNU Autoconf 2.72.  Invocation command line was

  CONFIG_FILES    = 
  CONFIG_HEADERS  = 
  CONFIG_LINKS    = 
  CONFIG_COMMANDS = 
  $ ./config.status 

on un-ln01.twcc.ai

config.status:1051: creating Makefile
config.status:1051: creating setup/constants.h
config.status:1051: creating setup/constants_tomography.h
config.status:1051: creating setup/precision.h
config.status:1051: creating setup/config.fh
config.status:1051: creating setup/version.fh
config.status:1051: creating DATA/Par_file
config.status:1051: creating DATA/CMTSOLUTION
config.status:1051: creating DATA/STATIONS
config.status:1051: creating setup/config.h
config.status:1221: setup/config.h is unchanged
config.status:1266: executing bin commands
config.status:1266: executing obj commands
config.status:1266: executing OUTPUT_FILES commands
configure:13679: result: 
configure:13684: result: 
configure:13686: result: ./configure has completed and set up a default configuration to build.
configure:13688: result: 
configure:13690: result: You may wish to modify the following files before running a simulation:
configure:13692: result:   DATA/Par_file           Set parameters affecting the simulation (before
                          running make and compiling when enabling static
                          compilation).
configure:13698: result:   DATA/CMTSOLUTION        Set the source parameters before running the solver.
configure:13700: result:   DATA/STATIONS           Set the receiver stations before running the solver.
configure:13702: result: 

## ---------------- ##
## Cache variables. ##
## ---------------- ##

ac_cv_build=x86_64-pc-linux-gnu
ac_cv_c_compiler_gnu=yes
ac_cv_cxx_compiler_gnu=yes
ac_cv_env_ADIOS2_CONFIG_set=
ac_cv_env_ADIOS2_CONFIG_value=
ac_cv_env_ADIOS_CONFIG_set=
ac_cv_env_ADIOS_CONFIG_value=
ac_cv_env_ASDF_LIBS_set=
ac_cv_env_ASDF_LIBS_value=
ac_cv_env_BLAS_LIBS_set=
ac_cv_env_BLAS_LIBS_value=
ac_cv_env_CCC_set=
ac_cv_env_CCC_value=
ac_cv_env_CC_set=set
ac_cv_env_CC_value=/work/HPC_SYS/twnia2/pkg-rocky8/nvidia/hpc_sdk/Linux_x86_64/24.11/compilers/bin/nvc
ac_cv_env_CEM_FCFLAGS_set=
ac_cv_env_CEM_FCFLAGS_value=
ac_cv_env_CEM_LIBS_set=
ac_cv_env_CEM_LIBS_value=
ac_cv_env_CFLAGS_set=
ac_cv_env_CFLAGS_value=
ac_cv_env_CPPFLAGS_set=
ac_cv_env_CPPFLAGS_value=
ac_cv_env_CPP_set=set
ac_cv_env_CPP_value=cpp
ac_cv_env_CUDA_FLAGS_set=
ac_cv_env_CUDA_FLAGS_value=
ac_cv_env_CUDA_INC_set=
ac_cv_env_CUDA_INC_value=
ac_cv_env_CUDA_LIB_set=set
ac_cv_env_CUDA_LIB_value=/work/HPC_SYS/twnia2/pkg-rocky8/nvidia/hpc_sdk/Linux_x86_64/24.11/cuda/lib64
ac_cv_env_CXXCPP_set=
ac_cv_env_CXXCPP_value=
ac_cv_env_CXXFLAGS_set=
ac_cv_env_CXXFLAGS_value=
ac_cv_env_CXX_set=set
ac_cv_env_CXX_value=/work/HPC_SYS/twnia2/pkg-rocky8/nvidia/hpc_sdk/Linux_x86_64/24.11/compilers/bin/nvc++
ac_cv_env_EMC_FCFLAGS_set=
ac_cv_env_EMC_FCFLAGS_value=
ac_cv_env_EMC_LIBS_set=
ac_cv_env_EMC_LIBS_value=
ac_cv_env_FCFLAGS_set=
ac_cv_env_FCFLAGS_value=
ac_cv_env_FC_set=set
ac_cv_env_FC_value=/work/HPC_SYS/twnia2/pkg-rocky8/nvidia/hpc_sdk/Linux_x86_64/24.11/compilers/bin/nvfortran
ac_cv_env_FLAGS_CHECK_set=
ac_cv_env_FLAGS_CHECK_value=
ac_cv_env_HDF5_FCFLAGS_set=
ac_cv_env_HDF5_FCFLAGS_value=
ac_cv_env_HDF5_INC_set=
ac_cv_env_HDF5_INC_value=
ac_cv_env_HDF5_LIBS_set=
ac_cv_env_HDF5_LIBS_value=
ac_cv_env_HIPCC_set=
ac_cv_env_HIPCC_value=
ac_cv_env_HIP_FLAGS_set=
ac_cv_env_HIP_FLAGS_value=
ac_cv_env_HIP_INC_set=
ac_cv_env_HIP_INC_value=
ac_cv_env_HIP_LIBS_set=
ac_cv_env_HIP_LIBS_value=
ac_cv_env_HIP_PLATFORM_set=
ac_cv_env_HIP_PLATFORM_value=
ac_cv_env_LDFLAGS_set=
ac_cv_env_LDFLAGS_value=
ac_cv_env_LIBS_set=
ac_cv_env_LIBS_value=
ac_cv_env_LIBXSMM_INC_set=
ac_cv_env_LIBXSMM_INC_value=
ac_cv_env_LIBXSMM_LIBS_set=
ac_cv_env_LIBXSMM_LIBS_value=
ac_cv_env_LOCAL_PATH_IS_ALSO_GLOBAL_set=
ac_cv_env_LOCAL_PATH_IS_ALSO_GLOBAL_value=
ac_cv_env_MPICC_set=
ac_cv_env_MPICC_value=
ac_cv_env_MPIFC_set=
ac_cv_env_MPIFC_value=
ac_cv_env_MPILIBS_set=
ac_cv_env_MPILIBS_value=
ac_cv_env_MPI_INC_set=
ac_cv_env_MPI_INC_value=
ac_cv_env_NETCDF_FCFLAGS_set=
ac_cv_env_NETCDF_FCFLAGS_value=
ac_cv_env_NETCDF_INC_set=
ac_cv_env_NETCDF_INC_value=
ac_cv_env_NETCDF_LIBS_set=
ac_cv_env_NETCDF_LIBS_value=
ac_cv_env_NVCC_set=
ac_cv_env_NVCC_value=
ac_cv_env_OCL_CPU_FLAGS_set=
ac_cv_env_OCL_CPU_FLAGS_value=
ac_cv_env_OCL_GPU_FLAGS_set=
ac_cv_env_OCL_GPU_FLAGS_value=
ac_cv_env_OCL_INC_set=
ac_cv_env_OCL_INC_value=
ac_cv_env_OCL_LIB_set=
ac_cv_env_OCL_LIB_value=
ac_cv_env_OMP_FCFLAGS_set=
ac_cv_env_OMP_FCFLAGS_value=
ac_cv_env_OMP_LIB_set=
ac_cv_env_OMP_LIB_value=
ac_cv_env_PETSC_FCFLAGS_set=
ac_cv_env_PETSC_FCFLAGS_value=
ac_cv_env_PETSC_INC_set=
ac_cv_env_PETSC_INC_value=
ac_cv_env_PETSC_LIB_set=
ac_cv_env_PETSC_LIB_value=
ac_cv_env_PSTL_LIB_set=
ac_cv_env_PSTL_LIB_value=
ac_cv_env_build_alias_set=
ac_cv_env_build_alias_value=
ac_cv_env_host_alias_set=
ac_cv_env_host_alias_value=
ac_cv_env_target_alias_set=
ac_cv_env_target_alias_value=
ac_cv_fc_compiler_gnu=no
ac_cv_fc_dummy_main=none
ac_cv_fc_freeform=none
ac_cv_fc_libs=' -L/work/HPC_SYS/devtoolset/devtoolset-10/root/usr/lib64 -L/work/HPC_SYS/devtoolset/devtoolset-10/root/usr/lib -L/work/HPC_SYS/twnia2/pkg-rocky8/nvidia/hpc_sdk/Linux_x86_64/24.11/comm_libs/12.6/hpcx/hpcx-2.20/ompi/lib -L/work/HPC_SYS/twnia2/pkg-rocky8/nvidia/hpc_sdk/Linux_x86_64/24.11/comm_libs/12.6/hpcx/hpcx-2.20/nccl_rdma_sharp_plugin/lib -L/work/HPC_SYS/twnia2/pkg-rocky8/nvidia/hpc_sdk/Linux_x86_64/24.11/comm_libs/12.6/hpcx/hpcx-2.20/sharp/lib -L/work/HPC_SYS/twnia2/pkg-rocky8/nvidia/hpc_sdk/Linux_x86_64/24.11/comm_libs/12.6/hpcx/hpcx-2.20/hcoll/lib -L/work/HPC_SYS/twnia2/pkg-rocky8/nvidia/hpc_sdk/Linux_x86_64/24.11/comm_libs/12.6/hpcx/hpcx-2.20/ucc/lib -L/work/HPC_SYS/twnia2/pkg-rocky8/nvidia/hpc_sdk/Linux_x86_64/24.11/comm_libs/12.6/hpcx/hpcx-2.20/ucx/lib -L/work/HPC_SYS/twnia2/pkg-rocky8/nvidia/hpc_sdk/Linux_x86_64/24.11/compilers/lib -L/usr/lib64 -L/usr/lib/gcc/x86_64-redhat-linux/8/ -L/usr/lib/gcc/x86_64-redhat-linux/8//../../../../lib64 -lnvf -lnvomp -ldl -lnvhpcatm -latomic -lpthread -lnvcpumath -lnsnvc -lnvc -lrt -lm'
ac_cv_fc_mangling='lower case, underscore, no extra underscore'
ac_cv_fc_module_ext=mod
ac_cv_fc_module_flag=-I
ac_cv_fc_module_output_flag='-module '
ac_cv_fc_pp_define=-D
ac_cv_fc_pp_srcext_F90=none
ac_cv_fc_pp_srcext_F=none
ac_cv_fc_srcext_f90=none
ac_cv_file__git_config=yes
ac_cv_fortran_dummy_main=none
ac_cv_header_emmintrin_h=yes
ac_cv_header_err_h=yes
ac_cv_header_inttypes_h=yes
ac_cv_header_mpi_h=yes
ac_cv_header_stdint_h=yes
ac_cv_header_stdio_h=yes
ac_cv_header_stdlib_h=yes
ac_cv_header_string_h=yes
ac_cv_header_strings_h=yes
ac_cv_header_sys_stat_h=yes
ac_cv_header_sys_types_h=yes
ac_cv_header_unistd_h=yes
ac_cv_header_xmmintrin_h=yes
ac_cv_host=x86_64-pc-linux-gnu
ac_cv_objext=o
ac_cv_path_NVCC_PROG=/work/HPC_SYS/twnia2/pkg-rocky8/nvidia/hpc_sdk/Linux_x86_64/24.11/compilers/bin/nvcc
ac_cv_prog_CPP=cpp
ac_cv_prog_CXXCPP='/work/HPC_SYS/twnia2/pkg-rocky8/nvidia/hpc_sdk/Linux_x86_64/24.11/compilers/bin/nvc++ -E'
ac_cv_prog_ac_ct_CC=/work/HPC_SYS/twnia2/pkg-rocky8/nvidia/hpc_sdk/Linux_x86_64/24.11/compilers/bin/nvc
ac_cv_prog_cc_c11=
ac_cv_prog_cc_g=yes
ac_cv_prog_cc_stdc=
ac_cv_prog_cxx_cxx11=
ac_cv_prog_cxx_g=yes
ac_cv_prog_cxx_stdcxx=
ac_cv_prog_fc_g=yes
ac_cv_prog_fc_v=-v

## ----------------- ##
## Output variables. ##
## ----------------- ##

ADIOS2_CFLAGS=''
ADIOS2_CLIBS=''
ADIOS2_CONFIG=''
ADIOS2_FCFLAGS=''
ADIOS2_LIBS=''
ADIOS_CONFIG=''
ADIOS_FCFLAGS=''
ADIOS_LIBS=''
ASDF_LIBS=''
BLAS_LIBS=''
CC='/work/HPC_SYS/twnia2/pkg-rocky8/nvidia/hpc_sdk/Linux_x86_64/24.11/compilers/bin/nvc'
CEM_FCFLAGS=''
CEM_LIBS=''
CFLAGS='-g -O2'
COND_ADIOS2_FALSE=''
COND_ADIOS2_TRUE='#'
COND_ADIOS_FALSE=''
COND_ADIOS_TRUE='#'
COND_ASDF_FALSE=''
COND_ASDF_TRUE='#'
COND_CEM_FALSE=''
COND_CEM_TRUE='#'
COND_CUDA10_FALSE=''
COND_CUDA10_TRUE='#'
COND_CUDA11_FALSE=''
COND_CUDA11_TRUE='#'
COND_CUDA12_FALSE=''
COND_CUDA12_TRUE='#'
COND_CUDA4_FALSE=''
COND_CUDA4_TRUE='#'
COND_CUDA5_FALSE=''
COND_CUDA5_TRUE='#'
COND_CUDA6_FALSE=''
COND_CUDA6_TRUE='#'
COND_CUDA7_FALSE=''
COND_CUDA7_TRUE='#'
COND_CUDA8_FALSE=''
COND_CUDA8_TRUE='#'
COND_CUDA9_FALSE='#'
COND_CUDA9_TRUE=''
COND_CUDA_AWARE_MPI_FALSE='#'
COND_CUDA_AWARE_MPI_TRUE=''
COND_CUDA_FALSE='#'
COND_CUDA_PLUS_FALSE='#'
COND_CUDA_PLUS_TRUE=''
COND_CUDA_TRUE=''
COND_DEBUG_FALSE=''
COND_DEBUG_TRUE='#'
COND_EMC_FALSE=''
COND_EMC_TRUE='#'
COND_HDF5_FALSE=''
COND_HDF5_TRUE='#'
COND_HIP_CUDA10_FALSE=''
COND_HIP_CUDA10_TRUE='#'
COND_HIP_CUDA11_FALSE=''
COND_HIP_CUDA11_TRUE='#'
COND_HIP_CUDA12_FALSE=''
COND_HIP_CUDA12_TRUE='#'
COND_HIP_CUDA5_FALSE=''
COND_HIP_CUDA5_TRUE='#'
COND_HIP_CUDA6_FALSE=''
COND_HIP_CUDA6_TRUE='#'
COND_HIP_CUDA7_FALSE=''
COND_HIP_CUDA7_TRUE='#'
COND_HIP_CUDA8_FALSE=''
COND_HIP_CUDA8_TRUE='#'
COND_HIP_CUDA9_FALSE=''
COND_HIP_CUDA9_TRUE='#'
COND_HIP_FALSE=''
COND_HIP_MI100_FALSE=''
COND_HIP_MI100_TRUE='#'
COND_HIP_MI250_FALSE=''
COND_HIP_MI250_TRUE='#'
COND_HIP_MI25_FALSE=''
COND_HIP_MI25_TRUE='#'
COND_HIP_MI50_FALSE=''
COND_HIP_MI50_TRUE='#'
COND_HIP_MI8_FALSE=''
COND_HIP_MI8_TRUE='#'
COND_HIP_PLATFORM_AMD_FALSE=''
COND_HIP_PLATFORM_AMD_TRUE='#'
COND_HIP_PLATFORM_CPU_FALSE=''
COND_HIP_PLATFORM_CPU_TRUE='#'
COND_HIP_PLATFORM_NVIDIA_FALSE=''
COND_HIP_PLATFORM_NVIDIA_TRUE='#'
COND_HIP_TRUE='#'
COND_MIC_FALSE=''
COND_MIC_TRUE='#'
COND_NETCDF_FALSE=''
COND_NETCDF_TRUE='#'
COND_OCL_FALSE=''
COND_OCL_TRUE='#'
COND_OMP_FALSE=''
COND_OMP_TRUE='#'
COND_PARALLEL_STL_FALSE=''
COND_PARALLEL_STL_TRUE='#'
COND_PETSC_FALSE=''
COND_PETSC_TRUE='#'
COND_STATIC_COMPILATION_FALSE=''
COND_STATIC_COMPILATION_TRUE='#'
COND_VECTORIZATION_FALSE=''
COND_VECTORIZATION_TRUE='#'
COND_VTK_FALSE=''
COND_VTK_TRUE='#'
COND_XSMM_FALSE=''
COND_XSMM_TRUE='#'
CONFIGURE_FLAGS='FC=/work/HPC_SYS/twnia2/pkg-rocky8/nvidia/hpc_sdk/Linux_x86_64/24.11/compilers/bin/nvfortran FCFLAGS=-g'
CPP='cpp'
CPPFLAGS=''
CUDA_CPPFLAGS=''
CUDA_FLAGS=''
CUDA_INC=''
CUDA_LDFLAGS='-L/work/HPC_SYS/twnia2/pkg-rocky8/nvidia/hpc_sdk/Linux_x86_64/24.11/cuda/lib64'
CUDA_LIB='/work/HPC_SYS/twnia2/pkg-rocky8/nvidia/hpc_sdk/Linux_x86_64/24.11/cuda/lib64'
CUDA_LIBS='-lcudart'
CUSTOM_MPI_TYPE='MPI_REAL'
CUSTOM_REAL='SIZE_REAL'
CXX='/work/HPC_SYS/twnia2/pkg-rocky8/nvidia/hpc_sdk/Linux_x86_64/24.11/compilers/bin/nvc++'
CXXCPP='/work/HPC_SYS/twnia2/pkg-rocky8/nvidia/hpc_sdk/Linux_x86_64/24.11/compilers/bin/nvc++ -E'
CXXFLAGS='-g -O2'
DEFS='-DHAVE_CONFIG_H'
ECHO_C=''
ECHO_N='-n'
ECHO_T=''
EMC_FCFLAGS=''
EMC_LIBS=''
EXEEXT=''
FC='/work/HPC_SYS/twnia2/pkg-rocky8/nvidia/hpc_sdk/Linux_x86_64/24.11/compilers/bin/nvfortran'
FCENV=''
FCFLAGS='-g'
FCFLAGS_F90=''
FCFLAGS_F=''
FCFLAGS_f90='-module ./obj -I./obj -I. '
FCLIBS=' -L/work/HPC_SYS/devtoolset/devtoolset-10/root/usr/lib64 -L/work/HPC_SYS/devtoolset/devtoolset-10/root/usr/lib -L/work/HPC_SYS/twnia2/pkg-rocky8/nvidia/hpc_sdk/Linux_x86_64/24.11/comm_libs/12.6/hpcx/hpcx-2.20/ompi/lib -L/work/HPC_SYS/twnia2/pkg-rocky8/nvidia/hpc_sdk/Linux_x86_64/24.11/comm_libs/12.6/hpcx/hpcx-2.20/nccl_rdma_sharp_plugin/lib -L/work/HPC_SYS/twnia2/pkg-rocky8/nvidia/hpc_sdk/Linux_x86_64/24.11/comm_libs/12.6/hpcx/hpcx-2.20/sharp/lib -L/work/HPC_SYS/twnia2/pkg-rocky8/nvidia/hpc_sdk/Linux_x86_64/24.11/comm_libs/12.6/hpcx/hpcx-2.20/hcoll/lib -L/work/HPC_SYS/twnia2/pkg-rocky8/nvidia/hpc_sdk/Linux_x86_64/24.11/comm_libs/12.6/hpcx/hpcx-2.20/ucc/lib -L/work/HPC_SYS/twnia2/pkg-rocky8/nvidia/hpc_sdk/Linux_x86_64/24.11/comm_libs/12.6/hpcx/hpcx-2.20/ucx/lib -L/work/HPC_SYS/twnia2/pkg-rocky8/nvidia/hpc_sdk/Linux_x86_64/24.11/compilers/lib -L/usr/lib64 -L/usr/lib/gcc/x86_64-redhat-linux/8/ -L/usr/lib/gcc/x86_64-redhat-linux/8//../../../../lib64 -lnvf -lnvomp -ldl -lnvhpcatm -latomic -lpthread -lnvcpumath -lnsnvc -lnvc -lrt -lm'
FC_DEFINE='-D'
FC_MODDIR='./obj'
FC_MODEXT='mod'
FC_MODINC='-I'
FC_MODOUT='-module ${ac_empty}'
FLAGS_CHECK=' '
GIT_COMMIT_VERSION='cb0a08c2fa76cca0430f546d88fff6dba75ca950'
GIT_DATE_VERSION='2025-03-06 15:55:09 +0100'
GIT_PACKAGE_VERSION='v8.1.0-261-gcb0a08c2'
HDF5_FCFLAGS=''
HDF5_INC=''
HDF5_INCLUDES=''
HDF5_LIBS=''
HIPCC=''
HIPCC_PROG=''
HIPCONFIG_PROG=''
HIP_CPPFLAGS=''
HIP_FLAGS=''
HIP_INC=''
HIP_LIBS=''
HIP_PLATFORM=''
LDFLAGS=''
LIBOBJS=''
LIBS=''
LIBXSMM_INC=''
LIBXSMM_LIBS=''
LOCAL_PATH_IS_ALSO_GLOBAL='true'
LTLIBOBJS=''
MPICC='mpicc'
MPIFC='mpif90'
MPILIBS=''
MPI_INC='/work/HPC_SYS/twnia2/pkg-rocky8/nvidia/hpc_sdk/Linux_x86_64/24.11/comm_libs/12.6/hpcx/hpcx-2.20/ompi/include'
MPI_INCLUDES=' -I/work/HPC_SYS/twnia2/pkg-rocky8/nvidia/hpc_sdk/Linux_x86_64/24.11/comm_libs/12.6/hpcx/hpcx-2.20/ompi/include'
NETCDF_FCFLAGS=''
NETCDF_INC=''
NETCDF_INCLUDES=''
NETCDF_LIBS=''
NVCC='nvcc'
NVCC_PROG='/work/HPC_SYS/twnia2/pkg-rocky8/nvidia/hpc_sdk/Linux_x86_64/24.11/compilers/bin/nvcc'
OBJEXT='o'
OCL_CFLAGS=''
OCL_CPU_FLAGS=''
OCL_GPU_FLAGS=''
OCL_INC=''
OCL_LDFLAGS=''
OCL_LIB=''
OCL_LIBS=''
OMP_FCFLAGS=''
OMP_LIB=''
PACKAGE_BUGREPORT='see the wiki'
PACKAGE_NAME='Specfem3D_Globe'
PACKAGE_STRING='Specfem3D_Globe 8.1.1'
PACKAGE_TARNAME='Specfem3DGlobe'
PACKAGE_URL=''
PACKAGE_VERSION='8.1.1'
PATH_SEPARATOR=':'
PETSC_FCFLAGS=''
PETSC_INC=''
PETSC_LDFLAGS=''
PETSC_LIB=''
PETSC_LIBS=''
PSTL_LIB=''
SHELL='/bin/sh'
VTK_INCLUDES=''
VTK_LDFLAGS=''
VTK_LIBS=''
VTK_MAJOR=''
ac_ct_CC='/work/HPC_SYS/twnia2/pkg-rocky8/nvidia/hpc_sdk/Linux_x86_64/24.11/compilers/bin/nvc'
ac_ct_CXX=''
ac_ct_FC=''
ac_empty=''
bindir='${exec_prefix}/bin'
build='x86_64-pc-linux-gnu'
build_alias=''
build_cpu='x86_64'
build_os='linux-gnu'
build_vendor='pc'
datadir='${datarootdir}'
datarootdir='${prefix}/share'
docdir='${datarootdir}/doc/${PACKAGE_TARNAME}'
dvidir='${docdir}'
exec_prefix='${prefix}'
host='x86_64-pc-linux-gnu'
host_alias=''
host_cpu='x86_64'
host_os='linux-gnu'
host_vendor='pc'
htmldir='${docdir}'
includedir='${prefix}/include'
infodir='${datarootdir}/info'
libdir='${exec_prefix}/lib'
libexecdir='${exec_prefix}/libexec'
localedir='${datarootdir}/locale'
localstatedir='${prefix}/var'
mandir='${datarootdir}/man'
oldincludedir='/usr/include'
pdfdir='${docdir}'
prefix='/usr/local'
program_transform_name='s,x,x,'
psdir='${docdir}'
runstatedir='${localstatedir}/run'
sbindir='${exec_prefix}/sbin'
sharedstatedir='${prefix}/com'
srcdir='.'
sysconfdir='${prefix}/etc'
target_alias=''

## ----------- ##
## confdefs.h. ##
## ----------- ##

/* confdefs.h */
#define PACKAGE_NAME "Specfem3D_Globe"
#define PACKAGE_TARNAME "Specfem3DGlobe"
#define PACKAGE_VERSION "8.1.1"
#define PACKAGE_STRING "Specfem3D_Globe 8.1.1"
#define PACKAGE_BUGREPORT "see the wiki"
#define PACKAGE_URL ""
#define FC_FUNC(name,NAME) name ## _
#define FC_FUNC_(name,NAME) name ## _
#define HAVE_STDIO_H 1
#define HAVE_STDLIB_H 1
#define HAVE_STRING_H 1
#define HAVE_INTTYPES_H 1
#define HAVE_STDINT_H 1
#define HAVE_STRINGS_H 1
#define HAVE_SYS_STAT_H 1
#define HAVE_SYS_TYPES_H 1
#define HAVE_UNISTD_H 1
#define STDC_HEADERS 1
#define HAVE_EMMINTRIN 1
#define HAVE_XMMINTRIN 1
#define HAVE_ERR 1
#define SPECFEM3D_GLOBE_RELEASE_VERSION 0
#define SPECFEM3D_GLOBE_GIT_REVISION "v8.1.0-261-gcb0a08c2"
#define SPECFEM3D_GLOBE_GIT_HASH "cb0a08c2fa76cca0430f546d88fff6dba75ca950"
#define SPECFEM3D_GLOBE_GIT_DATE "2025-03-06 15:55:09 +0100"
#define SPECFEM3D_GLOBE_GIT_BRANCH "devel"
#define SPECFEM3D_GLOBE_VERSION "8.1.1"

configure: exit 0
